version 2
run Net10-0-20190610-17:16:46-2036
attr configname Net10
attr datetime 20190610-17:16:46
attr experiment Net10
attr inifile omnetpp.ini
attr iterationvars ""
attr iterationvarsf ""
attr measurement ""
attr network mogps.networks.Net10
attr processid 2036
attr repetition 0
attr replication #0
attr resultdir results
attr runnumber 0
attr seedset 0
param **.eventStorage.packetLength "1024 byte"
param **.node[*].operator[*].packetLength "1024 byte"


